<net version="1.0">
    <junction id="J1" type="traffic_light" x="0.0" y="0.0" incLanes="E0_0 E1_0 E2_0 E3_0" intLanes=":J1_0_0 :J1_1_0 :J1_2_0 :J1_3_0" shape="0.0,5.0 5.0,0.0 0.0,-5.0 -5.0,0.0"/>

    <edge id="E0" from="N0" to="J1" priority="1">
        <lane id="E0_0" index="0" speed="13.89" length="100.0" shape="-100.0,0.0 0.0,0.0"/>
    </edge>
    <edge id="E1" from="J1" to="N1" priority="1">
        <lane id="E1_0" index="0" speed="13.89" length="100.0" shape="0.0,0.0 100.0,0.0"/>
    </edge>
    <edge id="E2" from="N2" to="J1" priority="1">
        <lane id="E2_0" index="0" speed="13.89" length="100.0" shape="0.0,-100.0 0.0,0.0"/>
    </edge>
    <edge id="E3" from="J1" to="N3" priority="1">
        <lane id="E3_0" index="0" speed="13.89" length="100.0" shape="0.0,0.0 0.0,100.0"/>
    </edge>

    <node id="N0" x="-100.0" y="0.0" type="priority"/>
    <node id="N1" x="100.0" y="0.0" type="priority"/>
    <node id="N2" x="0.0" y="-100.0" type="priority"/>
    <node id="N3" x="0.0" y="100.0" type="priority"/>

    <connection from="E0" to="E1" fromLane="0" toLane="0" via=":J1_0_0" dir="s" state="--"/>
    <connection from="E2" to="E3" fromLane="0" toLane="0" via=":J1_1_0" dir="s" state="--"/>
    <connection from="E0" to="E3" fromLane="0" toLane="0" via=":J1_2_0" dir="l" state="--"/>
    <connection from="E2" to="E1" fromLane="0" toLane="0" via=":J1_3_0" dir="r" state="--"/>

    <tlLogic id="J1" type="static" programID="0" offset="0">
        <phase duration="30" state="GrGr"/>
        <phase duration="4" state="yryr"/>
        <phase duration="30" state="rGrG"/>
        <phase duration="4" state="ryry"/>
    </tlLogic>
</net>

