<routes>
    <vType id="car" accel="0.8" decel="4.5" sigma="0.5" length="5" maxSpeed="70" />
    <route id="route_0" edges="edge_8 edge_32" />
    <vehicle id="veh_0" type="car" route="route_0" depart="0" />
    <route id="route_1" edges="edge_5 edge_3" />
    <vehicle id="veh_1" type="car" route="route_1" depart="1" />
    <route id="route_2" edges="edge_49 edge_30" />
    <vehicle id="veh_2" type="car" route="route_2" depart="2" />
    <route id="route_3" edges="edge_16 edge_33" />
    <vehicle id="veh_3" type="car" route="route_3" depart="3" />
    <route id="route_4" edges="edge_20 edge_23" />
    <vehicle id="veh_4" type="car" route="route_4" depart="4" />
    <route id="route_5" edges="edge_43 edge_46" />
    <vehicle id="veh_5" type="car" route="route_5" depart="5" />
    <route id="route_6" edges="edge_37 edge_9" />
    <vehicle id="veh_6" type="car" route="route_6" depart="6" />
    <route id="route_7" edges="edge_37 edge_33" />
    <vehicle id="veh_7" type="car" route="route_7" depart="7" />
    <route id="route_8" edges="edge_39 edge_9" />
    <vehicle id="veh_8" type="car" route="route_8" depart="8" />
    <route id="route_9" edges="edge_25 edge_22" />
    <vehicle id="veh_9" type="car" route="route_9" depart="9" />
    <route id="route_10" edges="edge_12 edge_34" />
    <vehicle id="veh_10" type="car" route="route_10" depart="10" />
    <route id="route_11" edges="edge_47 edge_17" />
    <vehicle id="veh_11" type="car" route="route_11" depart="11" />
    <route id="route_12" edges="edge_8 edge_24" />
    <vehicle id="veh_12" type="car" route="route_12" depart="12" />
    <route id="route_13" edges="edge_33 edge_34" />
    <vehicle id="veh_13" type="car" route="route_13" depart="13" />
    <route id="route_14" edges="edge_35 edge_44" />
    <vehicle id="veh_14" type="car" route="route_14" depart="14" />
    <route id="route_15" edges="edge_10 edge_2" />
    <vehicle id="veh_15" type="car" route="route_15" depart="15" />
    <route id="route_16" edges="edge_34 edge_42" />
    <vehicle id="veh_16" type="car" route="route_16" depart="16" />
    <route id="route_17" edges="edge_0 edge_5" />
    <vehicle id="veh_17" type="car" route="route_17" depart="17" />
    <route id="route_18" edges="edge_47 edge_24" />
    <vehicle id="veh_18" type="car" route="route_18" depart="18" />
    <route id="route_19" edges="edge_44 edge_49" />
    <vehicle id="veh_19" type="car" route="route_19" depart="19" />
    <route id="route_20" edges="edge_21 edge_20" />
    <vehicle id="veh_20" type="car" route="route_20" depart="20" />
    <route id="route_21" edges="edge_37 edge_25" />
    <vehicle id="veh_21" type="car" route="route_21" depart="21" />
    <route id="route_22" edges="edge_2 edge_49" />
    <vehicle id="veh_22" type="car" route="route_22" depart="22" />
    <route id="route_23" edges="edge_2 edge_14" />
    <vehicle id="veh_23" type="car" route="route_23" depart="23" />
    <route id="route_24" edges="edge_43 edge_33" />
    <vehicle id="veh_24" type="car" route="route_24" depart="24" />
    <route id="route_25" edges="edge_6 edge_1" />
    <vehicle id="veh_25" type="car" route="route_25" depart="25" />
    <route id="route_26" edges="edge_2 edge_4" />
    <vehicle id="veh_26" type="car" route="route_26" depart="26" />
    <route id="route_27" edges="edge_0 edge_42" />
    <vehicle id="veh_27" type="car" route="route_27" depart="27" />
    <route id="route_28" edges="edge_43 edge_46" />
    <vehicle id="veh_28" type="car" route="route_28" depart="28" />
    <route id="route_29" edges="edge_15 edge_22" />
    <vehicle id="veh_29" type="car" route="route_29" depart="29" />
    <route id="route_30" edges="edge_42 edge_36" />
    <vehicle id="veh_30" type="car" route="route_30" depart="30" />
    <route id="route_31" edges="edge_16 edge_42" />
    <vehicle id="veh_31" type="car" route="route_31" depart="31" />
    <route id="route_32" edges="edge_35 edge_8" />
    <vehicle id="veh_32" type="car" route="route_32" depart="32" />
    <route id="route_33" edges="edge_31 edge_8" />
    <vehicle id="veh_33" type="car" route="route_33" depart="33" />
    <route id="route_34" edges="edge_35 edge_33" />
    <vehicle id="veh_34" type="car" route="route_34" depart="34" />
    <route id="route_35" edges="edge_3 edge_11" />
    <vehicle id="veh_35" type="car" route="route_35" depart="35" />
    <route id="route_36" edges="edge_18 edge_16" />
    <vehicle id="veh_36" type="car" route="route_36" depart="36" />
    <route id="route_37" edges="edge_13 edge_42" />
    <vehicle id="veh_37" type="car" route="route_37" depart="37" />
    <route id="route_38" edges="edge_37 edge_5" />
    <vehicle id="veh_38" type="car" route="route_38" depart="38" />
    <route id="route_39" edges="edge_34 edge_25" />
    <vehicle id="veh_39" type="car" route="route_39" depart="39" />
    <route id="route_40" edges="edge_1 edge_0" />
    <vehicle id="veh_40" type="car" route="route_40" depart="40" />
    <route id="route_41" edges="edge_36 edge_12" />
    <vehicle id="veh_41" type="car" route="route_41" depart="41" />
    <route id="route_42" edges="edge_32 edge_42" />
    <vehicle id="veh_42" type="car" route="route_42" depart="42" />
    <route id="route_43" edges="edge_7 edge_40" />
    <vehicle id="veh_43" type="car" route="route_43" depart="43" />
    <route id="route_44" edges="edge_5 edge_21" />
    <vehicle id="veh_44" type="car" route="route_44" depart="44" />
    <route id="route_45" edges="edge_19 edge_18" />
    <vehicle id="veh_45" type="car" route="route_45" depart="45" />
    <route id="route_46" edges="edge_2 edge_21" />
    <vehicle id="veh_46" type="car" route="route_46" depart="46" />
    <route id="route_47" edges="edge_41 edge_8" />
    <vehicle id="veh_47" type="car" route="route_47" depart="47" />
    <route id="route_48" edges="edge_43 edge_31" />
    <vehicle id="veh_48" type="car" route="route_48" depart="48" />
    <route id="route_49" edges="edge_46 edge_6" />
    <vehicle id="veh_49" type="car" route="route_49" depart="49" />
    <route id="route_50" edges="edge_6 edge_16" />
    <vehicle id="veh_50" type="car" route="route_50" depart="50" />
    <route id="route_51" edges="edge_11 edge_26" />
    <vehicle id="veh_51" type="car" route="route_51" depart="51" />
    <route id="route_52" edges="edge_35 edge_4" />
    <vehicle id="veh_52" type="car" route="route_52" depart="52" />
    <route id="route_53" edges="edge_6 edge_25" />
    <vehicle id="veh_53" type="car" route="route_53" depart="53" />
    <route id="route_54" edges="edge_10 edge_28" />
    <vehicle id="veh_54" type="car" route="route_54" depart="54" />
    <route id="route_55" edges="edge_9 edge_26" />
    <vehicle id="veh_55" type="car" route="route_55" depart="55" />
    <route id="route_56" edges="edge_14 edge_25" />
    <vehicle id="veh_56" type="car" route="route_56" depart="56" />
    <route id="route_57" edges="edge_41 edge_2" />
    <vehicle id="veh_57" type="car" route="route_57" depart="57" />
    <route id="route_58" edges="edge_12 edge_7" />
    <vehicle id="veh_58" type="car" route="route_58" depart="58" />
    <route id="route_59" edges="edge_33 edge_47" />
    <vehicle id="veh_59" type="car" route="route_59" depart="59" />
    <route id="route_60" edges="edge_35 edge_28" />
    <vehicle id="veh_60" type="car" route="route_60" depart="60" />
    <route id="route_61" edges="edge_18 edge_33" />
    <vehicle id="veh_61" type="car" route="route_61" depart="61" />
    <route id="route_62" edges="edge_47 edge_31" />
    <vehicle id="veh_62" type="car" route="route_62" depart="62" />
    <route id="route_63" edges="edge_9 edge_43" />
    <vehicle id="veh_63" type="car" route="route_63" depart="63" />
    <route id="route_64" edges="edge_35 edge_44" />
    <vehicle id="veh_64" type="car" route="route_64" depart="64" />
    <route id="route_65" edges="edge_39 edge_12" />
    <vehicle id="veh_65" type="car" route="route_65" depart="65" />
    <route id="route_66" edges="edge_1 edge_38" />
    <vehicle id="veh_66" type="car" route="route_66" depart="66" />
    <route id="route_67" edges="edge_36 edge_38" />
    <vehicle id="veh_67" type="car" route="route_67" depart="67" />
    <route id="route_68" edges="edge_43 edge_34" />
    <vehicle id="veh_68" type="car" route="route_68" depart="68" />
    <route id="route_69" edges="edge_8 edge_32" />
    <vehicle id="veh_69" type="car" route="route_69" depart="69" />
    <route id="route_70" edges="edge_2 edge_36" />
    <vehicle id="veh_70" type="car" route="route_70" depart="70" />
    <route id="route_71" edges="edge_28 edge_3" />
    <vehicle id="veh_71" type="car" route="route_71" depart="71" />
    <route id="route_72" edges="edge_47 edge_21" />
    <vehicle id="veh_72" type="car" route="route_72" depart="72" />
    <route id="route_73" edges="edge_38 edge_34" />
    <vehicle id="veh_73" type="car" route="route_73" depart="73" />
    <route id="route_74" edges="edge_6 edge_7" />
    <vehicle id="veh_74" type="car" route="route_74" depart="74" />
    <route id="route_75" edges="edge_33 edge_47" />
    <vehicle id="veh_75" type="car" route="route_75" depart="75" />
    <route id="route_76" edges="edge_42 edge_22" />
    <vehicle id="veh_76" type="car" route="route_76" depart="76" />
    <route id="route_77" edges="edge_28 edge_26" />
    <vehicle id="veh_77" type="car" route="route_77" depart="77" />
    <route id="route_78" edges="edge_45 edge_49" />
    <vehicle id="veh_78" type="car" route="route_78" depart="78" />
    <route id="route_79" edges="edge_20 edge_48" />
    <vehicle id="veh_79" type="car" route="route_79" depart="79" />
    <route id="route_80" edges="edge_27 edge_26" />
    <vehicle id="veh_80" type="car" route="route_80" depart="80" />
    <route id="route_81" edges="edge_33 edge_14" />
    <vehicle id="veh_81" type="car" route="route_81" depart="81" />
    <route id="route_82" edges="edge_32 edge_39" />
    <vehicle id="veh_82" type="car" route="route_82" depart="82" />
    <route id="route_83" edges="edge_42 edge_17" />
    <vehicle id="veh_83" type="car" route="route_83" depart="83" />
    <route id="route_84" edges="edge_3 edge_46" />
    <vehicle id="veh_84" type="car" route="route_84" depart="84" />
    <route id="route_85" edges="edge_23 edge_18" />
    <vehicle id="veh_85" type="car" route="route_85" depart="85" />
    <route id="route_86" edges="edge_41 edge_18" />
    <vehicle id="veh_86" type="car" route="route_86" depart="86" />
    <route id="route_87" edges="edge_45 edge_32" />
    <vehicle id="veh_87" type="car" route="route_87" depart="87" />
    <route id="route_88" edges="edge_30 edge_48" />
    <vehicle id="veh_88" type="car" route="route_88" depart="88" />
    <route id="route_89" edges="edge_18 edge_11" />
    <vehicle id="veh_89" type="car" route="route_89" depart="89" />
    <route id="route_90" edges="edge_7 edge_23" />
    <vehicle id="veh_90" type="car" route="route_90" depart="90" />
    <route id="route_91" edges="edge_30 edge_0" />
    <vehicle id="veh_91" type="car" route="route_91" depart="91" />
    <route id="route_92" edges="edge_45 edge_49" />
    <vehicle id="veh_92" type="car" route="route_92" depart="92" />
    <route id="route_93" edges="edge_24 edge_6" />
    <vehicle id="veh_93" type="car" route="route_93" depart="93" />
    <route id="route_94" edges="edge_22 edge_42" />
    <vehicle id="veh_94" type="car" route="route_94" depart="94" />
    <route id="route_95" edges="edge_41 edge_47" />
    <vehicle id="veh_95" type="car" route="route_95" depart="95" />
    <route id="route_96" edges="edge_21 edge_9" />
    <vehicle id="veh_96" type="car" route="route_96" depart="96" />
    <route id="route_97" edges="edge_1 edge_25" />
    <vehicle id="veh_97" type="car" route="route_97" depart="97" />
    <route id="route_98" edges="edge_9 edge_8" />
    <vehicle id="veh_98" type="car" route="route_98" depart="98" />
    <route id="route_99" edges="edge_15 edge_25" />
    <vehicle id="veh_99" type="car" route="route_99" depart="99" />
    <route id="route_100" edges="edge_6 edge_37" />
    <vehicle id="veh_100" type="car" route="route_100" depart="100" />
    <route id="route_101" edges="edge_44 edge_37" />
    <vehicle id="veh_101" type="car" route="route_101" depart="101" />
    <route id="route_102" edges="edge_23 edge_12" />
    <vehicle id="veh_102" type="car" route="route_102" depart="102" />
    <route id="route_103" edges="edge_31 edge_36" />
    <vehicle id="veh_103" type="car" route="route_103" depart="103" />
    <route id="route_104" edges="edge_12 edge_9" />
    <vehicle id="veh_104" type="car" route="route_104" depart="104" />
    <route id="route_105" edges="edge_21 edge_22" />
    <vehicle id="veh_105" type="car" route="route_105" depart="105" />
    <route id="route_106" edges="edge_34 edge_22" />
    <vehicle id="veh_106" type="car" route="route_106" depart="106" />
    <route id="route_107" edges="edge_32 edge_38" />
    <vehicle id="veh_107" type="car" route="route_107" depart="107" />
    <route id="route_108" edges="edge_37 edge_3" />
    <vehicle id="veh_108" type="car" route="route_108" depart="108" />
    <route id="route_109" edges="edge_48 edge_3" />
    <vehicle id="veh_109" type="car" route="route_109" depart="109" />
    <route id="route_110" edges="edge_11 edge_29" />
    <vehicle id="veh_110" type="car" route="route_110" depart="110" />
    <route id="route_111" edges="edge_19 edge_44" />
    <vehicle id="veh_111" type="car" route="route_111" depart="111" />
    <route id="route_112" edges="edge_42 edge_47" />
    <vehicle id="veh_112" type="car" route="route_112" depart="112" />
    <route id="route_113" edges="edge_6 edge_11" />
    <vehicle id="veh_113" type="car" route="route_113" depart="113" />
    <route id="route_114" edges="edge_16 edge_17" />
    <vehicle id="veh_114" type="car" route="route_114" depart="114" />
    <route id="route_115" edges="edge_31 edge_41" />
    <vehicle id="veh_115" type="car" route="route_115" depart="115" />
    <route id="route_116" edges="edge_20 edge_39" />
    <vehicle id="veh_116" type="car" route="route_116" depart="116" />
    <route id="route_117" edges="edge_46 edge_40" />
    <vehicle id="veh_117" type="car" route="route_117" depart="117" />
    <route id="route_118" edges="edge_13 edge_11" />
    <vehicle id="veh_118" type="car" route="route_118" depart="118" />
    <route id="route_119" edges="edge_38 edge_19" />
    <vehicle id="veh_119" type="car" route="route_119" depart="119" />
    <route id="route_120" edges="edge_49 edge_11" />
    <vehicle id="veh_120" type="car" route="route_120" depart="120" />
    <route id="route_121" edges="edge_18 edge_14" />
    <vehicle id="veh_121" type="car" route="route_121" depart="121" />
    <route id="route_122" edges="edge_27 edge_45" />
    <vehicle id="veh_122" type="car" route="route_122" depart="122" />
    <route id="route_123" edges="edge_26 edge_45" />
    <vehicle id="veh_123" type="car" route="route_123" depart="123" />
    <route id="route_124" edges="edge_46 edge_12" />
    <vehicle id="veh_124" type="car" route="route_124" depart="124" />
    <route id="route_125" edges="edge_34 edge_15" />
    <vehicle id="veh_125" type="car" route="route_125" depart="125" />
    <route id="route_126" edges="edge_31 edge_22" />
    <vehicle id="veh_126" type="car" route="route_126" depart="126" />
    <route id="route_127" edges="edge_49 edge_12" />
    <vehicle id="veh_127" type="car" route="route_127" depart="127" />
    <route id="route_128" edges="edge_49 edge_34" />
    <vehicle id="veh_128" type="car" route="route_128" depart="128" />
    <route id="route_129" edges="edge_5 edge_25" />
    <vehicle id="veh_129" type="car" route="route_129" depart="129" />
    <route id="route_130" edges="edge_6 edge_14" />
    <vehicle id="veh_130" type="car" route="route_130" depart="130" />
    <route id="route_131" edges="edge_7 edge_14" />
    <vehicle id="veh_131" type="car" route="route_131" depart="131" />
    <route id="route_132" edges="edge_33 edge_0" />
    <vehicle id="veh_132" type="car" route="route_132" depart="132" />
    <route id="route_133" edges="edge_38 edge_25" />
    <vehicle id="veh_133" type="car" route="route_133" depart="133" />
    <route id="route_134" edges="edge_3 edge_26" />
    <vehicle id="veh_134" type="car" route="route_134" depart="134" />
    <route id="route_135" edges="edge_34 edge_12" />
    <vehicle id="veh_135" type="car" route="route_135" depart="135" />
    <route id="route_136" edges="edge_7 edge_49" />
    <vehicle id="veh_136" type="car" route="route_136" depart="136" />
    <route id="route_137" edges="edge_49 edge_35" />
    <vehicle id="veh_137" type="car" route="route_137" depart="137" />
    <route id="route_138" edges="edge_30 edge_25" />
    <vehicle id="veh_138" type="car" route="route_138" depart="138" />
    <route id="route_139" edges="edge_43 edge_3" />
    <vehicle id="veh_139" type="car" route="route_139" depart="139" />
    <route id="route_140" edges="edge_47 edge_34" />
    <vehicle id="veh_140" type="car" route="route_140" depart="140" />
    <route id="route_141" edges="edge_42 edge_9" />
    <vehicle id="veh_141" type="car" route="route_141" depart="141" />
    <route id="route_142" edges="edge_1 edge_45" />
    <vehicle id="veh_142" type="car" route="route_142" depart="142" />
    <route id="route_143" edges="edge_42 edge_36" />
    <vehicle id="veh_143" type="car" route="route_143" depart="143" />
    <route id="route_144" edges="edge_1 edge_25" />
    <vehicle id="veh_144" type="car" route="route_144" depart="144" />
    <route id="route_145" edges="edge_37 edge_32" />
    <vehicle id="veh_145" type="car" route="route_145" depart="145" />
    <route id="route_146" edges="edge_26 edge_28" />
    <vehicle id="veh_146" type="car" route="route_146" depart="146" />
    <route id="route_147" edges="edge_49 edge_20" />
    <vehicle id="veh_147" type="car" route="route_147" depart="147" />
    <route id="route_148" edges="edge_48 edge_44" />
    <vehicle id="veh_148" type="car" route="route_148" depart="148" />
    <route id="route_149" edges="edge_20 edge_27" />
    <vehicle id="veh_149" type="car" route="route_149" depart="149" />
    <route id="route_150" edges="edge_37 edge_25" />
    <vehicle id="veh_150" type="car" route="route_150" depart="150" />
    <route id="route_151" edges="edge_8 edge_39" />
    <vehicle id="veh_151" type="car" route="route_151" depart="151" />
    <route id="route_152" edges="edge_34 edge_20" />
    <vehicle id="veh_152" type="car" route="route_152" depart="152" />
    <route id="route_153" edges="edge_14 edge_31" />
    <vehicle id="veh_153" type="car" route="route_153" depart="153" />
    <route id="route_154" edges="edge_8 edge_25" />
    <vehicle id="veh_154" type="car" route="route_154" depart="154" />
    <route id="route_155" edges="edge_23 edge_34" />
    <vehicle id="veh_155" type="car" route="route_155" depart="155" />
    <route id="route_156" edges="edge_41 edge_15" />
    <vehicle id="veh_156" type="car" route="route_156" depart="156" />
    <route id="route_157" edges="edge_32 edge_13" />
    <vehicle id="veh_157" type="car" route="route_157" depart="157" />
    <route id="route_158" edges="edge_35 edge_13" />
    <vehicle id="veh_158" type="car" route="route_158" depart="158" />
    <route id="route_159" edges="edge_0 edge_37" />
    <vehicle id="veh_159" type="car" route="route_159" depart="159" />
    <route id="route_160" edges="edge_5 edge_23" />
    <vehicle id="veh_160" type="car" route="route_160" depart="160" />
    <route id="route_161" edges="edge_3 edge_49" />
    <vehicle id="veh_161" type="car" route="route_161" depart="161" />
    <route id="route_162" edges="edge_25 edge_39" />
    <vehicle id="veh_162" type="car" route="route_162" depart="162" />
    <route id="route_163" edges="edge_29 edge_45" />
    <vehicle id="veh_163" type="car" route="route_163" depart="163" />
    <route id="route_164" edges="edge_13 edge_38" />
    <vehicle id="veh_164" type="car" route="route_164" depart="164" />
    <route id="route_165" edges="edge_49 edge_42" />
    <vehicle id="veh_165" type="car" route="route_165" depart="165" />
    <route id="route_166" edges="edge_11 edge_31" />
    <vehicle id="veh_166" type="car" route="route_166" depart="166" />
    <route id="route_167" edges="edge_5 edge_34" />
    <vehicle id="veh_167" type="car" route="route_167" depart="167" />
    <route id="route_168" edges="edge_11 edge_40" />
    <vehicle id="veh_168" type="car" route="route_168" depart="168" />
    <route id="route_169" edges="edge_49 edge_18" />
    <vehicle id="veh_169" type="car" route="route_169" depart="169" />
    <route id="route_170" edges="edge_29 edge_15" />
    <vehicle id="veh_170" type="car" route="route_170" depart="170" />
    <route id="route_171" edges="edge_23 edge_36" />
    <vehicle id="veh_171" type="car" route="route_171" depart="171" />
    <route id="route_172" edges="edge_14 edge_22" />
    <vehicle id="veh_172" type="car" route="route_172" depart="172" />
    <route id="route_173" edges="edge_36 edge_46" />
    <vehicle id="veh_173" type="car" route="route_173" depart="173" />
    <route id="route_174" edges="edge_8 edge_6" />
    <vehicle id="veh_174" type="car" route="route_174" depart="174" />
    <route id="route_175" edges="edge_8 edge_27" />
    <vehicle id="veh_175" type="car" route="route_175" depart="175" />
    <route id="route_176" edges="edge_44 edge_37" />
    <vehicle id="veh_176" type="car" route="route_176" depart="176" />
    <route id="route_177" edges="edge_28 edge_48" />
    <vehicle id="veh_177" type="car" route="route_177" depart="177" />
    <route id="route_178" edges="edge_32 edge_24" />
    <vehicle id="veh_178" type="car" route="route_178" depart="178" />
    <route id="route_179" edges="edge_21 edge_18" />
    <vehicle id="veh_179" type="car" route="route_179" depart="179" />
    <route id="route_180" edges="edge_36 edge_22" />
    <vehicle id="veh_180" type="car" route="route_180" depart="180" />
    <route id="route_181" edges="edge_9 edge_17" />
    <vehicle id="veh_181" type="car" route="route_181" depart="181" />
    <route id="route_182" edges="edge_14 edge_29" />
    <vehicle id="veh_182" type="car" route="route_182" depart="182" />
    <route id="route_183" edges="edge_12 edge_25" />
    <vehicle id="veh_183" type="car" route="route_183" depart="183" />
    <route id="route_184" edges="edge_0 edge_39" />
    <vehicle id="veh_184" type="car" route="route_184" depart="184" />
    <route id="route_185" edges="edge_20 edge_5" />
    <vehicle id="veh_185" type="car" route="route_185" depart="185" />
    <route id="route_186" edges="edge_8 edge_32" />
    <vehicle id="veh_186" type="car" route="route_186" depart="186" />
    <route id="route_187" edges="edge_36 edge_14" />
    <vehicle id="veh_187" type="car" route="route_187" depart="187" />
    <route id="route_188" edges="edge_17 edge_33" />
    <vehicle id="veh_188" type="car" route="route_188" depart="188" />
    <route id="route_189" edges="edge_30 edge_34" />
    <vehicle id="veh_189" type="car" route="route_189" depart="189" />
    <route id="route_190" edges="edge_8 edge_1" />
    <vehicle id="veh_190" type="car" route="route_190" depart="190" />
    <route id="route_191" edges="edge_0 edge_8" />
    <vehicle id="veh_191" type="car" route="route_191" depart="191" />
    <route id="route_192" edges="edge_33 edge_0" />
    <vehicle id="veh_192" type="car" route="route_192" depart="192" />
    <route id="route_193" edges="edge_45 edge_49" />
    <vehicle id="veh_193" type="car" route="route_193" depart="193" />
    <route id="route_194" edges="edge_40 edge_35" />
    <vehicle id="veh_194" type="car" route="route_194" depart="194" />
    <route id="route_195" edges="edge_33 edge_8" />
    <vehicle id="veh_195" type="car" route="route_195" depart="195" />
    <route id="route_196" edges="edge_38 edge_7" />
    <vehicle id="veh_196" type="car" route="route_196" depart="196" />
    <route id="route_197" edges="edge_47 edge_4" />
    <vehicle id="veh_197" type="car" route="route_197" depart="197" />
    <route id="route_198" edges="edge_5 edge_6" />
    <vehicle id="veh_198" type="car" route="route_198" depart="198" />
    <route id="route_199" edges="edge_18 edge_34" />
    <vehicle id="veh_199" type="car" route="route_199" depart="199" />
</routes>